tests/data/power_flow/pandapower/components/pp-sym-sym_gen/pgm_sym_output.json
{
  "line": [
    {
      "id": 3,
      "energized": 1,
      "loading": 0.00277743592339548,
      "p_from": -30000.166353326986,
      "q_from": -40638.250343367596,
      "i_from": 2.7774359233954797,
      "s_from": 50512.15073818882,
      "p_to": 30003.440328676985,
      "q_to": 6000.688065786624,
      "i_to": 1.6822401723861278,
      "s_to": 30597.62554217818
    }
  ],
  "node": [
    {
      "id": 1,
      "energized": 1,
      "u_pu": 1.0000043421476716,
      "u": 10500.045592550552,
      "u_angle": 2.580751213055508e-06
    },
    {
      "id": 2,
      "energized": 1,
      "u_pu": 1.0001146732405566,
      "u": 10501.204069025844,
      "u_angle": 4.1226598498483635e-06
    }
  ],
  "source": [
    {
      "id": 4,
      "energized": 1,
      "p": -30000.166353464596,
      "q": -40638.25034293611,
      "i": 2.777435923380885,
      "s": 50512.15073792341,
      "pf": -0.5939197978149272
    }
  ],
  "sym_gen": [
    {
      "id": 6,
      "energized": 1,
      "p": 10000.0,
      "q": 2000.0,
      "i": 0.560682426400851,
      "s": 10198.03902718557,
      "pf": 0.9805806756909201
    },
    {
      "id": 7,
      "energized": 1,
      "p": 10001.146732405567,
      "q": 2000.2293464811135,
      "i": 0.5607467216716094,
      "s": 10199.208469368139,
      "pf": 0.9805806756909203
    },
    {
      "id": 8,
      "energized": 1,
      "p": 10002.293596310652,
      "q": 2000.458719262131,
      "i": 0.560811024315315,
      "s": 10200.378045654435,
      "pf": 0.98058067569092
    },
    {
      "id": 9,
      "energized": 1,
      "p": 0.0,
      "q": 0.0,
      "i": 0.0,
      "s": 0.0,
      "pf": 0.0
    }
  ]
}